* NGSPICE file created from user_analog_project_wrapper.ext - technology: sky130A

.subckt bp_lines_horiz_main bondpad_lines_horiz_0[6]/m2_n36_9584# bondpad_lines_horiz_0[6]/m2_n36_7984#
+ bondpad_lines_horiz_0[1]/m2_n36_n16# bondpad_lines_horiz_0[6]/m2_n36_n16# bondpad_lines_horiz_0[2]/m2_n36_11184#
+ bondpad_lines_horiz_0[4]/m2_n36_6384# bondpad_lines_horiz_0[2]/m2_n36_3184# bondpad_lines_horiz_0[4]/m2_n36_4784#
+ bondpad_lines_horiz_0[2]/m2_n36_1584# bondpad_lines_horiz_0[6]/m2_n36_11184# bondpad_lines_horiz_0[1]/m2_n36_9584#
+ bondpad_lines_horiz_0[5]/m2_n36_3184# bondpad_lines_horiz_0[5]/m2_n36_1584# bondpad_lines_horiz_0[1]/m2_n36_7984#
+ bondpad_lines_horiz_0[5]/m2_n36_n16# bondpad_lines_horiz_0[0]/m2_n36_n16# bondpad_lines_horiz_0[4]/m2_n36_7984#
+ bondpad_lines_horiz_0[4]/m2_n36_9584# bondpad_lines_horiz_0[2]/m2_n36_6384# bondpad_lines_horiz_0[2]/m2_n36_4784#
+ bondpad_lines_horiz_0[0]/m2_n36_3184# bondpad_lines_horiz_0[3]/m2_n36_11184# bondpad_lines_horiz_0[0]/m2_n36_1584#
+ bondpad_lines_horiz_0[5]/m2_n36_6384# bondpad_lines_horiz_0[3]/m2_n36_3184# bondpad_lines_horiz_0[3]/m2_n36_1584#
+ bondpad_lines_horiz_0[5]/m2_n36_4784# bondpad_lines_horiz_0[4]/m2_n36_n16# bondpad_lines_horiz_0[0]/m2_n36_11184#
+ bondpad_lines_horiz_0[2]/m2_n36_9584# bondpad_lines_horiz_0[6]/m2_n36_3184# bondpad_lines_horiz_0[4]/m2_n36_11184#
+ bondpad_lines_horiz_0[6]/m2_n36_1584# bondpad_lines_horiz_0[2]/m2_n36_7984# bondpad_lines_horiz_0[0]/m2_n36_4784#
+ bondpad_lines_horiz_0[0]/m2_n36_6384# bondpad_lines_horiz_0[3]/m2_n36_n16# bondpad_lines_horiz_0[5]/m2_n36_9584#
+ bondpad_lines_horiz_0[3]/m2_n36_6384# bondpad_lines_horiz_0[5]/m2_n36_7984# bondpad_lines_horiz_0[1]/m2_n36_3184#
+ bondpad_lines_horiz_0[3]/m2_n36_4784# bondpad_lines_horiz_0[1]/m2_n36_1584# bondpad_lines_horiz_0[6]/m2_n36_6384#
+ bondpad_lines_horiz_0[1]/m2_n36_11184# bondpad_lines_horiz_0[4]/m2_n36_3184# bondpad_lines_horiz_0[6]/m2_n36_4784#
+ bondpad_lines_horiz_0[0]/m2_n36_9584# bondpad_lines_horiz_0[4]/m2_n36_1584# bondpad_lines_horiz_0[0]/m2_n36_7984#
+ bondpad_lines_horiz_0[2]/m2_n36_n16# bondpad_lines_horiz_0[5]/m2_n36_11184# bondpad_lines_horiz_0[3]/m2_n36_9584#
+ bondpad_lines_horiz_0[1]/m2_n36_6384# bondpad_lines_horiz_0[3]/m2_n36_7984# bondpad_lines_horiz_0[1]/m2_n36_4784#
.ends

.subckt bp_lines_horiz_main_both bp_lines_horiz_main_1/bondpad_lines_horiz_0[5]/m2_n36_6384#
+ bp_lines_horiz_main_1/bondpad_lines_horiz_0[2]/m2_n36_n16# bp_lines_horiz_main_1/bondpad_lines_horiz_0[3]/m2_n36_3184#
+ bp_lines_horiz_main_0/bondpad_lines_horiz_0[5]/m2_n36_11184# bp_lines_horiz_main_1/bondpad_lines_horiz_0[5]/m2_n36_4784#
+ bp_lines_horiz_main_1/bondpad_lines_horiz_0[3]/m2_n36_1584# bp_lines_horiz_main_0/bondpad_lines_horiz_0[4]/m2_n36_9584#
+ bp_lines_horiz_main_0/bondpad_lines_horiz_0[2]/m2_n36_6384# bp_lines_horiz_main_0/bondpad_lines_horiz_0[4]/m2_n36_7984#
+ bp_lines_horiz_main_0/bondpad_lines_horiz_0[0]/m2_n36_3184# bp_lines_horiz_main_0/bondpad_lines_horiz_0[2]/m2_n36_4784#
+ bp_lines_horiz_main_1/bondpad_lines_horiz_0[6]/m2_n36_3184# bp_lines_horiz_main_0/bondpad_lines_horiz_0[0]/m2_n36_1584#
+ bp_lines_horiz_main_1/bondpad_lines_horiz_0[2]/m2_n36_9584# bp_lines_horiz_main_1/bondpad_lines_horiz_0[0]/m2_n36_6384#
+ bp_lines_horiz_main_0/bondpad_lines_horiz_0[6]/m2_n36_n16# bp_lines_horiz_main_1/bondpad_lines_horiz_0[2]/m2_n36_7984#
+ bp_lines_horiz_main_1/bondpad_lines_horiz_0[6]/m2_n36_1584# bp_lines_horiz_main_0/bondpad_lines_horiz_0[1]/m2_n36_n16#
+ bp_lines_horiz_main_1/bondpad_lines_horiz_0[2]/m2_n36_11184# bp_lines_horiz_main_1/bondpad_lines_horiz_0[0]/m2_n36_4784#
+ bp_lines_horiz_main_0/bondpad_lines_horiz_0[5]/m2_n36_6384# bp_lines_horiz_main_1/bondpad_lines_horiz_0[6]/m2_n36_n16#
+ bp_lines_horiz_main_1/bondpad_lines_horiz_0[1]/m2_n36_n16# bp_lines_horiz_main_0/bondpad_lines_horiz_0[3]/m2_n36_3184#
+ bp_lines_horiz_main_0/bondpad_lines_horiz_0[5]/m2_n36_4784# bp_lines_horiz_main_0/bondpad_lines_horiz_0[2]/m2_n36_11184#
+ bp_lines_horiz_main_1/bondpad_lines_horiz_0[6]/m2_n36_11184# bp_lines_horiz_main_0/bondpad_lines_horiz_0[3]/m2_n36_1584#
+ bp_lines_horiz_main_1/bondpad_lines_horiz_0[5]/m2_n36_9584# bp_lines_horiz_main_1/bondpad_lines_horiz_0[3]/m2_n36_6384#
+ bp_lines_horiz_main_1/bondpad_lines_horiz_0[5]/m2_n36_7984# bp_lines_horiz_main_1/bondpad_lines_horiz_0[1]/m2_n36_3184#
+ bp_lines_horiz_main_1/bondpad_lines_horiz_0[3]/m2_n36_4784# bp_lines_horiz_main_0/bondpad_lines_horiz_0[6]/m2_n36_11184#
+ bp_lines_horiz_main_1/bondpad_lines_horiz_0[1]/m2_n36_1584# bp_lines_horiz_main_0/bondpad_lines_horiz_0[6]/m2_n36_3184#
+ bp_lines_horiz_main_0/bondpad_lines_horiz_0[2]/m2_n36_9584# bp_lines_horiz_main_0/bondpad_lines_horiz_0[0]/m2_n36_6384#
+ bp_lines_horiz_main_0/bondpad_lines_horiz_0[2]/m2_n36_7984# bp_lines_horiz_main_0/bondpad_lines_horiz_0[5]/m2_n36_n16#
+ bp_lines_horiz_main_0/bondpad_lines_horiz_0[6]/m2_n36_1584# bp_lines_horiz_main_0/bondpad_lines_horiz_0[0]/m2_n36_n16#
+ bp_lines_horiz_main_1/bondpad_lines_horiz_0[6]/m2_n36_6384# bp_lines_horiz_main_0/bondpad_lines_horiz_0[0]/m2_n36_4784#
+ bp_lines_horiz_main_1/bondpad_lines_horiz_0[0]/m2_n36_9584# bp_lines_horiz_main_1/bondpad_lines_horiz_0[4]/m2_n36_3184#
+ bp_lines_horiz_main_1/bondpad_lines_horiz_0[6]/m2_n36_4784# bp_lines_horiz_main_1/bondpad_lines_horiz_0[5]/m2_n36_n16#
+ bp_lines_horiz_main_1/bondpad_lines_horiz_0[4]/m2_n36_1584# bp_lines_horiz_main_1/bondpad_lines_horiz_0[0]/m2_n36_n16#
+ bp_lines_horiz_main_1/bondpad_lines_horiz_0[0]/m2_n36_7984# bp_lines_horiz_main_0/bondpad_lines_horiz_0[5]/m2_n36_9584#
+ bp_lines_horiz_main_1/bondpad_lines_horiz_0[3]/m2_n36_11184# bp_lines_horiz_main_0/bondpad_lines_horiz_0[3]/m2_n36_6384#
+ bp_lines_horiz_main_0/bondpad_lines_horiz_0[5]/m2_n36_7984# bp_lines_horiz_main_0/bondpad_lines_horiz_0[1]/m2_n36_3184#
+ bp_lines_horiz_main_0/bondpad_lines_horiz_0[3]/m2_n36_4784# bp_lines_horiz_main_0/bondpad_lines_horiz_0[3]/m2_n36_11184#
+ bp_lines_horiz_main_1/bondpad_lines_horiz_0[3]/m2_n36_9584# bp_lines_horiz_main_0/bondpad_lines_horiz_0[1]/m2_n36_1584#
+ bp_lines_horiz_main_1/bondpad_lines_horiz_0[1]/m2_n36_6384# bp_lines_horiz_main_1/bondpad_lines_horiz_0[3]/m2_n36_7984#
+ bp_lines_horiz_main_1/bondpad_lines_horiz_0[1]/m2_n36_4784# bp_lines_horiz_main_0/bondpad_lines_horiz_0[4]/m2_n36_n16#
+ bp_lines_horiz_main_0/bondpad_lines_horiz_0[6]/m2_n36_6384# bp_lines_horiz_main_0/bondpad_lines_horiz_0[4]/m2_n36_3184#
+ bp_lines_horiz_main_0/bondpad_lines_horiz_0[0]/m2_n36_9584# bp_lines_horiz_main_0/bondpad_lines_horiz_0[6]/m2_n36_4784#
+ bp_lines_horiz_main_1/bondpad_lines_horiz_0[4]/m2_n36_n16# bp_lines_horiz_main_1/bondpad_lines_horiz_0[6]/m2_n36_9584#
+ bp_lines_horiz_main_0/bondpad_lines_horiz_0[4]/m2_n36_1584# bp_lines_horiz_main_0/bondpad_lines_horiz_0[0]/m2_n36_7984#
+ bp_lines_horiz_main_1/bondpad_lines_horiz_0[4]/m2_n36_6384# bp_lines_horiz_main_1/bondpad_lines_horiz_0[0]/m2_n36_11184#
+ bp_lines_horiz_main_1/bondpad_lines_horiz_0[6]/m2_n36_7984# bp_lines_horiz_main_1/bondpad_lines_horiz_0[2]/m2_n36_3184#
+ bp_lines_horiz_main_1/bondpad_lines_horiz_0[4]/m2_n36_4784# bp_lines_horiz_main_1/bondpad_lines_horiz_0[2]/m2_n36_1584#
+ bp_lines_horiz_main_0/bondpad_lines_horiz_0[3]/m2_n36_9584# bp_lines_horiz_main_0/bondpad_lines_horiz_0[0]/m2_n36_11184#
+ bp_lines_horiz_main_1/bondpad_lines_horiz_0[4]/m2_n36_11184# bp_lines_horiz_main_0/bondpad_lines_horiz_0[1]/m2_n36_6384#
+ bp_lines_horiz_main_0/bondpad_lines_horiz_0[3]/m2_n36_7984# bp_lines_horiz_main_0/bondpad_lines_horiz_0[1]/m2_n36_4784#
+ bp_lines_horiz_main_1/bondpad_lines_horiz_0[5]/m2_n36_3184# bp_lines_horiz_main_0/bondpad_lines_horiz_0[4]/m2_n36_11184#
+ bp_lines_horiz_main_0/bondpad_lines_horiz_0[3]/m2_n36_n16# bp_lines_horiz_main_1/bondpad_lines_horiz_0[1]/m2_n36_9584#
+ bp_lines_horiz_main_1/bondpad_lines_horiz_0[5]/m2_n36_1584# bp_lines_horiz_main_1/bondpad_lines_horiz_0[1]/m2_n36_7984#
+ bp_lines_horiz_main_1/bondpad_lines_horiz_0[3]/m2_n36_n16# bp_lines_horiz_main_0/bondpad_lines_horiz_0[6]/m2_n36_9584#
+ bp_lines_horiz_main_0/bondpad_lines_horiz_0[4]/m2_n36_6384# bp_lines_horiz_main_0/bondpad_lines_horiz_0[6]/m2_n36_7984#
+ bp_lines_horiz_main_0/bondpad_lines_horiz_0[2]/m2_n36_3184# bp_lines_horiz_main_0/bondpad_lines_horiz_0[4]/m2_n36_4784#
+ bp_lines_horiz_main_1/bondpad_lines_horiz_0[4]/m2_n36_9584# bp_lines_horiz_main_0/bondpad_lines_horiz_0[2]/m2_n36_1584#
+ bp_lines_horiz_main_1/bondpad_lines_horiz_0[2]/m2_n36_6384# bp_lines_horiz_main_1/bondpad_lines_horiz_0[4]/m2_n36_7984#
+ bp_lines_horiz_main_1/bondpad_lines_horiz_0[1]/m2_n36_11184# bp_lines_horiz_main_1/bondpad_lines_horiz_0[0]/m2_n36_3184#
+ bp_lines_horiz_main_1/bondpad_lines_horiz_0[2]/m2_n36_4784# bp_lines_horiz_main_1/bondpad_lines_horiz_0[0]/m2_n36_1584#
+ bp_lines_horiz_main_0/bondpad_lines_horiz_0[5]/m2_n36_3184# bp_lines_horiz_main_0/bondpad_lines_horiz_0[1]/m2_n36_9584#
+ bp_lines_horiz_main_0/bondpad_lines_horiz_0[1]/m2_n36_11184# bp_lines_horiz_main_0/bondpad_lines_horiz_0[2]/m2_n36_n16#
+ bp_lines_horiz_main_1/bondpad_lines_horiz_0[5]/m2_n36_11184# bp_lines_horiz_main_0/bondpad_lines_horiz_0[5]/m2_n36_1584#
+ bp_lines_horiz_main_0/bondpad_lines_horiz_0[1]/m2_n36_7984#
Xbp_lines_horiz_main_0 bp_lines_horiz_main_0/bondpad_lines_horiz_0[6]/m2_n36_9584#
+ bp_lines_horiz_main_0/bondpad_lines_horiz_0[6]/m2_n36_7984# bp_lines_horiz_main_0/bondpad_lines_horiz_0[1]/m2_n36_n16#
+ bp_lines_horiz_main_0/bondpad_lines_horiz_0[6]/m2_n36_n16# bp_lines_horiz_main_0/bondpad_lines_horiz_0[2]/m2_n36_11184#
+ bp_lines_horiz_main_0/bondpad_lines_horiz_0[4]/m2_n36_6384# bp_lines_horiz_main_0/bondpad_lines_horiz_0[2]/m2_n36_3184#
+ bp_lines_horiz_main_0/bondpad_lines_horiz_0[4]/m2_n36_4784# bp_lines_horiz_main_0/bondpad_lines_horiz_0[2]/m2_n36_1584#
+ bp_lines_horiz_main_0/bondpad_lines_horiz_0[6]/m2_n36_11184# bp_lines_horiz_main_0/bondpad_lines_horiz_0[1]/m2_n36_9584#
+ bp_lines_horiz_main_0/bondpad_lines_horiz_0[5]/m2_n36_3184# bp_lines_horiz_main_0/bondpad_lines_horiz_0[5]/m2_n36_1584#
+ bp_lines_horiz_main_0/bondpad_lines_horiz_0[1]/m2_n36_7984# bp_lines_horiz_main_0/bondpad_lines_horiz_0[5]/m2_n36_n16#
+ bp_lines_horiz_main_0/bondpad_lines_horiz_0[0]/m2_n36_n16# bp_lines_horiz_main_0/bondpad_lines_horiz_0[4]/m2_n36_7984#
+ bp_lines_horiz_main_0/bondpad_lines_horiz_0[4]/m2_n36_9584# bp_lines_horiz_main_0/bondpad_lines_horiz_0[2]/m2_n36_6384#
+ bp_lines_horiz_main_0/bondpad_lines_horiz_0[2]/m2_n36_4784# bp_lines_horiz_main_0/bondpad_lines_horiz_0[0]/m2_n36_3184#
+ bp_lines_horiz_main_0/bondpad_lines_horiz_0[3]/m2_n36_11184# bp_lines_horiz_main_0/bondpad_lines_horiz_0[0]/m2_n36_1584#
+ bp_lines_horiz_main_0/bondpad_lines_horiz_0[5]/m2_n36_6384# bp_lines_horiz_main_0/bondpad_lines_horiz_0[3]/m2_n36_3184#
+ bp_lines_horiz_main_0/bondpad_lines_horiz_0[3]/m2_n36_1584# bp_lines_horiz_main_0/bondpad_lines_horiz_0[5]/m2_n36_4784#
+ bp_lines_horiz_main_0/bondpad_lines_horiz_0[4]/m2_n36_n16# bp_lines_horiz_main_0/bondpad_lines_horiz_0[0]/m2_n36_11184#
+ bp_lines_horiz_main_0/bondpad_lines_horiz_0[2]/m2_n36_9584# bp_lines_horiz_main_0/bondpad_lines_horiz_0[6]/m2_n36_3184#
+ bp_lines_horiz_main_0/bondpad_lines_horiz_0[4]/m2_n36_11184# bp_lines_horiz_main_0/bondpad_lines_horiz_0[6]/m2_n36_1584#
+ bp_lines_horiz_main_0/bondpad_lines_horiz_0[2]/m2_n36_7984# bp_lines_horiz_main_0/bondpad_lines_horiz_0[0]/m2_n36_4784#
+ bp_lines_horiz_main_0/bondpad_lines_horiz_0[0]/m2_n36_6384# bp_lines_horiz_main_0/bondpad_lines_horiz_0[3]/m2_n36_n16#
+ bp_lines_horiz_main_0/bondpad_lines_horiz_0[5]/m2_n36_9584# bp_lines_horiz_main_0/bondpad_lines_horiz_0[3]/m2_n36_6384#
+ bp_lines_horiz_main_0/bondpad_lines_horiz_0[5]/m2_n36_7984# bp_lines_horiz_main_0/bondpad_lines_horiz_0[1]/m2_n36_3184#
+ bp_lines_horiz_main_0/bondpad_lines_horiz_0[3]/m2_n36_4784# bp_lines_horiz_main_0/bondpad_lines_horiz_0[1]/m2_n36_1584#
+ bp_lines_horiz_main_0/bondpad_lines_horiz_0[6]/m2_n36_6384# bp_lines_horiz_main_0/bondpad_lines_horiz_0[1]/m2_n36_11184#
+ bp_lines_horiz_main_0/bondpad_lines_horiz_0[4]/m2_n36_3184# bp_lines_horiz_main_0/bondpad_lines_horiz_0[6]/m2_n36_4784#
+ bp_lines_horiz_main_0/bondpad_lines_horiz_0[0]/m2_n36_9584# bp_lines_horiz_main_0/bondpad_lines_horiz_0[4]/m2_n36_1584#
+ bp_lines_horiz_main_0/bondpad_lines_horiz_0[0]/m2_n36_7984# bp_lines_horiz_main_0/bondpad_lines_horiz_0[2]/m2_n36_n16#
+ bp_lines_horiz_main_0/bondpad_lines_horiz_0[5]/m2_n36_11184# bp_lines_horiz_main_0/bondpad_lines_horiz_0[3]/m2_n36_9584#
+ bp_lines_horiz_main_0/bondpad_lines_horiz_0[1]/m2_n36_6384# bp_lines_horiz_main_0/bondpad_lines_horiz_0[3]/m2_n36_7984#
+ bp_lines_horiz_main_0/bondpad_lines_horiz_0[1]/m2_n36_4784# bp_lines_horiz_main
Xbp_lines_horiz_main_1 bp_lines_horiz_main_1/bondpad_lines_horiz_0[6]/m2_n36_9584#
+ bp_lines_horiz_main_1/bondpad_lines_horiz_0[6]/m2_n36_7984# bp_lines_horiz_main_1/bondpad_lines_horiz_0[1]/m2_n36_n16#
+ bp_lines_horiz_main_1/bondpad_lines_horiz_0[6]/m2_n36_n16# bp_lines_horiz_main_1/bondpad_lines_horiz_0[2]/m2_n36_11184#
+ bp_lines_horiz_main_1/bondpad_lines_horiz_0[4]/m2_n36_6384# bp_lines_horiz_main_1/bondpad_lines_horiz_0[2]/m2_n36_3184#
+ bp_lines_horiz_main_1/bondpad_lines_horiz_0[4]/m2_n36_4784# bp_lines_horiz_main_1/bondpad_lines_horiz_0[2]/m2_n36_1584#
+ bp_lines_horiz_main_1/bondpad_lines_horiz_0[6]/m2_n36_11184# bp_lines_horiz_main_1/bondpad_lines_horiz_0[1]/m2_n36_9584#
+ bp_lines_horiz_main_1/bondpad_lines_horiz_0[5]/m2_n36_3184# bp_lines_horiz_main_1/bondpad_lines_horiz_0[5]/m2_n36_1584#
+ bp_lines_horiz_main_1/bondpad_lines_horiz_0[1]/m2_n36_7984# bp_lines_horiz_main_1/bondpad_lines_horiz_0[5]/m2_n36_n16#
+ bp_lines_horiz_main_1/bondpad_lines_horiz_0[0]/m2_n36_n16# bp_lines_horiz_main_1/bondpad_lines_horiz_0[4]/m2_n36_7984#
+ bp_lines_horiz_main_1/bondpad_lines_horiz_0[4]/m2_n36_9584# bp_lines_horiz_main_1/bondpad_lines_horiz_0[2]/m2_n36_6384#
+ bp_lines_horiz_main_1/bondpad_lines_horiz_0[2]/m2_n36_4784# bp_lines_horiz_main_1/bondpad_lines_horiz_0[0]/m2_n36_3184#
+ bp_lines_horiz_main_1/bondpad_lines_horiz_0[3]/m2_n36_11184# bp_lines_horiz_main_1/bondpad_lines_horiz_0[0]/m2_n36_1584#
+ bp_lines_horiz_main_1/bondpad_lines_horiz_0[5]/m2_n36_6384# bp_lines_horiz_main_1/bondpad_lines_horiz_0[3]/m2_n36_3184#
+ bp_lines_horiz_main_1/bondpad_lines_horiz_0[3]/m2_n36_1584# bp_lines_horiz_main_1/bondpad_lines_horiz_0[5]/m2_n36_4784#
+ bp_lines_horiz_main_1/bondpad_lines_horiz_0[4]/m2_n36_n16# bp_lines_horiz_main_1/bondpad_lines_horiz_0[0]/m2_n36_11184#
+ bp_lines_horiz_main_1/bondpad_lines_horiz_0[2]/m2_n36_9584# bp_lines_horiz_main_1/bondpad_lines_horiz_0[6]/m2_n36_3184#
+ bp_lines_horiz_main_1/bondpad_lines_horiz_0[4]/m2_n36_11184# bp_lines_horiz_main_1/bondpad_lines_horiz_0[6]/m2_n36_1584#
+ bp_lines_horiz_main_1/bondpad_lines_horiz_0[2]/m2_n36_7984# bp_lines_horiz_main_1/bondpad_lines_horiz_0[0]/m2_n36_4784#
+ bp_lines_horiz_main_1/bondpad_lines_horiz_0[0]/m2_n36_6384# bp_lines_horiz_main_1/bondpad_lines_horiz_0[3]/m2_n36_n16#
+ bp_lines_horiz_main_1/bondpad_lines_horiz_0[5]/m2_n36_9584# bp_lines_horiz_main_1/bondpad_lines_horiz_0[3]/m2_n36_6384#
+ bp_lines_horiz_main_1/bondpad_lines_horiz_0[5]/m2_n36_7984# bp_lines_horiz_main_1/bondpad_lines_horiz_0[1]/m2_n36_3184#
+ bp_lines_horiz_main_1/bondpad_lines_horiz_0[3]/m2_n36_4784# bp_lines_horiz_main_1/bondpad_lines_horiz_0[1]/m2_n36_1584#
+ bp_lines_horiz_main_1/bondpad_lines_horiz_0[6]/m2_n36_6384# bp_lines_horiz_main_1/bondpad_lines_horiz_0[1]/m2_n36_11184#
+ bp_lines_horiz_main_1/bondpad_lines_horiz_0[4]/m2_n36_3184# bp_lines_horiz_main_1/bondpad_lines_horiz_0[6]/m2_n36_4784#
+ bp_lines_horiz_main_1/bondpad_lines_horiz_0[0]/m2_n36_9584# bp_lines_horiz_main_1/bondpad_lines_horiz_0[4]/m2_n36_1584#
+ bp_lines_horiz_main_1/bondpad_lines_horiz_0[0]/m2_n36_7984# bp_lines_horiz_main_1/bondpad_lines_horiz_0[2]/m2_n36_n16#
+ bp_lines_horiz_main_1/bondpad_lines_horiz_0[5]/m2_n36_11184# bp_lines_horiz_main_1/bondpad_lines_horiz_0[3]/m2_n36_9584#
+ bp_lines_horiz_main_1/bondpad_lines_horiz_0[1]/m2_n36_6384# bp_lines_horiz_main_1/bondpad_lines_horiz_0[3]/m2_n36_7984#
+ bp_lines_horiz_main_1/bondpad_lines_horiz_0[1]/m2_n36_4784# bp_lines_horiz_main
.ends

.subckt bondpad_array_ds_6 pad4diode_0[6|6]/pad4_0/m4_n288088_n262980# pad4diode_1[4|0]/pad4_0/m4_n288088_n262980#
+ pad4diode_0[6|3]/pad4_0/m4_n288088_n262980# pad4diode_0[1|5]/pad4_0/m4_n288088_n262980#
+ pad4diode_1[2|7]/pad4_0/m4_n288088_n262980# pad4diode_0[6|0]/pad4_0/m4_n288088_n262980#
+ pad4diode_0[1|2]/pad4_0/m4_n288088_n262980# pad4diode_1[2|4]/pad4_0/m4_n288088_n262980#
+ pad4diode_0[4|7]/pad4_0/m4_n288088_n262980# pad4diode_1[2|1]/pad4_0/m4_n288088_n262980#
+ pad4diode_0[4|4]/pad4_0/m4_n288088_n262980# pad4diode_1[5|6]/pad4_0/m4_n288088_n262980#
+ pad4diode_0[4|1]/pad4_0/m4_n288088_n262980# pad4diode_1[5|3]/pad4_0/m4_n288088_n262980#
+ pad4diode_1[0|5]/pad4_0/m4_n288088_n262980# pad4diode_1[5|0]/pad4_0/m4_n288088_n262980#
+ pad4diode_1[0|2]/pad4_0/m4_n288088_n262980# pad4diode_0[2|5]/pad4_0/m4_n288088_n262980#
+ pad4diode_1[3|7]/pad4_0/m4_n288088_n262980# pad4diode_0[2|2]/pad4_0/m4_n288088_n262980#
+ pad4diode_1[3|4]/pad4_0/m4_n288088_n262980# pad4diode_0[5|7]/pad4_0/m4_n288088_n262980#
+ pad4diode_1[3|1]/pad4_0/m4_n288088_n262980# pad4diode_0[5|4]/pad4_0/m4_n288088_n262980#
+ pad4diode_0[0|6]/pad4_0/m4_n288088_n262980# pad4diode_1[6|6]/pad4_0/m4_n288088_n262980#
+ pad4diode_0[5|1]/pad4_0/m4_n288088_n262980# pad4diode_0[0|3]/pad4_0/m4_n288088_n262980#
+ pad4diode_1[6|3]/pad4_0/m4_n288088_n262980# pad4diode_1[1|5]/pad4_0/m4_n288088_n262980#
+ pad4diode_0[0|0]/pad4_0/m4_n288088_n262980# pad4diode_1[6|0]/pad4_0/m4_n288088_n262980#
+ pad4diode_1[1|2]/pad4_0/m4_n288088_n262980# pad4diode_0[3|5]/pad4_0/m4_n288088_n262980#
+ pad4diode_1[4|7]/pad4_0/m4_n288088_n262980# pad4diode_0[3|2]/pad4_0/m4_n288088_n262980#
+ pad4diode_1[4|4]/pad4_0/m4_n288088_n262980# pad4diode_1[6|7]/li_n3281_1242# pad4diode_0[6|7]/pad4_0/m4_n288088_n262980#
+ pad4diode_1[4|1]/pad4_0/m4_n288088_n262980# pad4diode_0[6|4]/pad4_0/m4_n288088_n262980#
+ pad4diode_0[1|6]/pad4_0/m4_n288088_n262980# pad4diode_0[6|1]/pad4_0/m4_n288088_n262980#
+ pad4diode_0[1|3]/pad4_0/m4_n288088_n262980# pad4diode_1[2|5]/pad4_0/m4_n288088_n262980#
+ pad4diode_0[1|0]/pad4_0/m4_n288088_n262980# pad4diode_1[2|2]/pad4_0/m4_n288088_n262980#
+ pad4diode_0[4|5]/pad4_0/m4_n288088_n262980# pad4diode_1[5|7]/pad4_0/m4_n288088_n262980#
+ pad4diode_0[4|2]/pad4_0/m4_n288088_n262980# pad4diode_1[5|4]/pad4_0/m4_n288088_n262980#
+ pad4diode_1[0|6]/pad4_0/m4_n288088_n262980# pad4diode_1[5|1]/pad4_0/m4_n288088_n262980#
+ pad4diode_1[0|3]/pad4_0/m4_n288088_n262980# pad4diode_0[2|6]/pad4_0/m4_n288088_n262980#
+ pad4diode_1[0|0]/pad4_0/m4_n288088_n262980# pad4diode_0[2|3]/pad4_0/m4_n288088_n262980#
+ pad4diode_1[3|5]/pad4_0/m4_n288088_n262980# pad4diode_0[2|0]/pad4_0/m4_n288088_n262980#
+ pad4diode_1[3|2]/pad4_0/m4_n288088_n262980# pad4diode_0[5|5]/pad4_0/m4_n288088_n262980#
+ pad4diode_0[0|7]/pad4_0/m4_n288088_n262980# pad4diode_1[6|7]/pad4_0/m4_n288088_n262980#
+ pad4diode_0[5|2]/pad4_0/m4_n288088_n262980# pad4diode_0[0|4]/pad4_0/m4_n288088_n262980#
+ pad4diode_1[6|4]/pad4_0/m4_n288088_n262980# pad4diode_1[1|6]/pad4_0/m4_n288088_n262980#
+ pad4diode_0[0|1]/pad4_0/m4_n288088_n262980# pad4diode_1[6|1]/pad4_0/m4_n288088_n262980#
+ pad4diode_1[1|3]/pad4_0/m4_n288088_n262980# pad4diode_0[3|6]/pad4_0/m4_n288088_n262980#
+ pad4diode_1[1|0]/pad4_0/m4_n288088_n262980# pad4diode_0[3|3]/pad4_0/m4_n288088_n262980#
+ pad4diode_1[4|5]/pad4_0/m4_n288088_n262980# pad4diode_0[3|0]/pad4_0/m4_n288088_n262980#
+ pad4diode_1[4|2]/pad4_0/m4_n288088_n262980# pad4diode_0[6|5]/pad4_0/m4_n288088_n262980#
+ pad4diode_0[1|7]/pad4_0/m4_n288088_n262980# pad4diode_0[6|2]/pad4_0/m4_n288088_n262980#
+ pad4diode_0[1|4]/pad4_0/m4_n288088_n262980# pad4diode_1[2|6]/pad4_0/m4_n288088_n262980#
+ pad4diode_0[1|1]/pad4_0/m4_n288088_n262980# pad4diode_1[2|3]/pad4_0/m4_n288088_n262980#
+ pad4diode_0[4|6]/pad4_0/m4_n288088_n262980# pad4diode_1[2|0]/pad4_0/m4_n288088_n262980#
+ pad4diode_0[4|3]/pad4_0/m4_n288088_n262980# pad4diode_1[5|5]/pad4_0/m4_n288088_n262980#
+ pad4diode_0[4|0]/pad4_0/m4_n288088_n262980# pad4diode_1[0|7]/pad4_0/m4_n288088_n262980#
+ pad4diode_1[5|2]/pad4_0/m4_n288088_n262980# pad4diode_1[0|4]/pad4_0/m4_n288088_n262980#
+ pad4diode_0[2|7]/pad4_0/m4_n288088_n262980# pad4diode_1[0|1]/pad4_0/m4_n288088_n262980#
+ pad4diode_0[2|4]/pad4_0/m4_n288088_n262980# pad4diode_1[3|6]/pad4_0/m4_n288088_n262980#
+ pad4diode_0[2|1]/pad4_0/m4_n288088_n262980# pad4diode_1[3|3]/pad4_0/m4_n288088_n262980#
+ pad4diode_0[5|6]/pad4_0/m4_n288088_n262980# pad4diode_1[3|0]/pad4_0/m4_n288088_n262980#
+ pad4diode_0[5|3]/pad4_0/m4_n288088_n262980# pad4diode_1[6|5]/pad4_0/m4_n288088_n262980#
+ pad4diode_0[0|5]/pad4_0/m4_n288088_n262980# pad4diode_1[1|7]/pad4_0/m4_n288088_n262980#
+ pad4diode_0[5|0]/pad4_0/m4_n288088_n262980# pad4diode_0[0|2]/pad4_0/m4_n288088_n262980#
+ pad4diode_1[6|2]/pad4_0/m4_n288088_n262980# pad4diode_1[1|4]/pad4_0/m4_n288088_n262980#
+ pad4diode_0[3|7]/pad4_0/m4_n288088_n262980# pad4diode_1[1|1]/pad4_0/m4_n288088_n262980#
+ pad4diode_0[3|4]/pad4_0/m4_n288088_n262980# pad4diode_1[4|6]/pad4_0/m4_n288088_n262980#
+ pad4diode_0[3|1]/pad4_0/m4_n288088_n262980# pad4diode_1[4|3]/pad4_0/m4_n288088_n262980#
.ends

.subckt bondpad_array_ds_6_top bondpad_array_ds_6_0/pad4diode_1[5|1]/pad4_0/m4_n288088_n262980#
+ bondpad_array_ds_6_0/pad4diode_0[0|7]/pad4_0/m4_n288088_n262980# bondpad_array_ds_6_0/pad4diode_1[1|6]/pad4_0/m4_n288088_n262980#
+ bondpad_array_ds_6_0/pad4diode_0[3|6]/pad4_0/m4_n288088_n262980# bondpad_array_ds_6_0/pad4diode_1[2|2]/pad4_0/m4_n288088_n262980#
+ bondpad_array_ds_6_0/pad4diode_0[2|0]/pad4_0/m4_n288088_n262980# bondpad_array_ds_6_0/pad4diode_0[3|0]/pad4_0/m4_n288088_n262980#
+ bondpad_array_ds_6_0/pad4diode_1[1|0]/pad4_0/m4_n288088_n262980# bondpad_array_ds_6_0/pad4diode_0[6|5]/pad4_0/m4_n288088_n262980#
+ bondpad_array_ds_6_0/pad4diode_0[5|2]/pad4_0/m4_n288088_n262980# bondpad_array_ds_6_0/pad4diode_1[6|7]/li_n3281_1242#
+ bondpad_array_ds_6_0/pad4diode_0[1|7]/pad4_0/m4_n288088_n262980# bondpad_array_ds_6_0/pad4diode_0[1|4]/pad4_0/m4_n288088_n262980#
+ bondpad_array_ds_6_0/pad4diode_1[1|3]/pad4_0/m4_n288088_n262980# bondpad_array_ds_6_0/pad4diode_1[3|5]/pad4_0/m4_n288088_n262980#
+ bondpad_array_ds_6_0/pad4diode_1[2|0]/pad4_0/m4_n288088_n262980# bondpad_array_ds_6_0/pad4diode_0[4|3]/pad4_0/m4_n288088_n262980#
+ bondpad_array_ds_6_0/pad4diode_0[4|6]/pad4_0/m4_n288088_n262980# bondpad_array_ds_6_0/pad4diode_1[5|2]/pad4_0/m4_n288088_n262980#
+ bondpad_array_ds_6_0/pad4diode_0[4|5]/pad4_0/m4_n288088_n262980# bondpad_array_ds_6_0/pad4diode_0[2|3]/pad4_0/m4_n288088_n262980#
+ bondpad_array_ds_6_0/pad4diode_0[2|4]/pad4_0/m4_n288088_n262980# bondpad_array_ds_6_0/pad4diode_1[3|6]/pad4_0/m4_n288088_n262980#
+ bondpad_array_ds_6_0/pad4diode_0[2|1]/pad4_0/m4_n288088_n262980# bondpad_array_ds_6_0/pad4diode_0[1|0]/pad4_0/m4_n288088_n262980#
+ bondpad_array_ds_6_0/pad4diode_0[0|1]/pad4_0/m4_n288088_n262980# bondpad_array_ds_6_0/pad4diode_1[0|7]/pad4_0/m4_n288088_n262980#
+ bondpad_array_ds_6_0/pad4diode_1[0|6]/pad4_0/m4_n288088_n262980# bondpad_array_ds_6_0/pad4diode_1[4|2]/pad4_0/m4_n288088_n262980#
+ bondpad_array_ds_6_0/pad4diode_1[5|7]/pad4_0/m4_n288088_n262980# bondpad_array_ds_6_0/pad4diode_1[6|5]/pad4_0/m4_n288088_n262980#
+ bondpad_array_ds_6_0/pad4diode_1[6|4]/pad4_0/m4_n288088_n262980# bondpad_array_ds_6_0/pad4diode_0[0|2]/pad4_0/m4_n288088_n262980#
+ bondpad_array_ds_6_0/pad4diode_1[1|4]/pad4_0/m4_n288088_n262980# bondpad_array_ds_6_0/pad4diode_1[0|0]/pad4_0/m4_n288088_n262980#
+ bondpad_array_ds_6_0/pad4diode_0[2|7]/pad4_0/m4_n288088_n262980# bondpad_array_ds_6_0/pad4diode_0[5|3]/pad4_0/m4_n288088_n262980#
+ bondpad_array_ds_6_0/pad4diode_1[1|1]/pad4_0/m4_n288088_n262980# bondpad_array_ds_6_0/pad4diode_1[4|6]/pad4_0/m4_n288088_n262980#
+ bondpad_array_ds_6_0/pad4diode_0[3|1]/pad4_0/m4_n288088_n262980# bondpad_array_ds_6_0/pad4diode_1[3|3]/pad4_0/m4_n288088_n262980#
+ bondpad_array_ds_6_0/pad4diode_1[4|3]/pad4_0/m4_n288088_n262980# bondpad_array_ds_6_0/pad4diode_1[5|5]/pad4_0/m4_n288088_n262980#
+ bondpad_array_ds_6_0/pad4diode_0[6|6]/pad4_0/m4_n288088_n262980# bondpad_array_ds_6_0/pad4diode_1[4|0]/pad4_0/m4_n288088_n262980#
+ bondpad_array_ds_6_0/pad4diode_0[1|5]/pad4_0/m4_n288088_n262980# bondpad_array_ds_6_0/pad4diode_0[5|0]/pad4_0/m4_n288088_n262980#
+ bondpad_array_ds_6_0/pad4diode_0[6|0]/pad4_0/m4_n288088_n262980# bondpad_array_ds_6_0/pad4diode_0[6|2]/pad4_0/m4_n288088_n262980#
+ bondpad_array_ds_6_0/pad4diode_0[2|6]/pad4_0/m4_n288088_n262980# bondpad_array_ds_6_0/pad4diode_0[4|7]/pad4_0/m4_n288088_n262980#
+ bondpad_array_ds_6_0/pad4diode_0[0|4]/pad4_0/m4_n288088_n262980# bondpad_array_ds_6_0/pad4diode_1[2|1]/pad4_0/m4_n288088_n262980#
+ bondpad_array_ds_6_0/pad4diode_1[1|7]/pad4_0/m4_n288088_n262980# bondpad_array_ds_6_0/pad4diode_1[0|3]/pad4_0/m4_n288088_n262980#
+ bondpad_array_ds_6_0/pad4diode_0[4|4]/pad4_0/m4_n288088_n262980# bondpad_array_ds_6_0/pad4diode_1[6|7]/pad4_0/m4_n288088_n262980#
+ bondpad_array_ds_6_0/pad4diode_1[5|6]/pad4_0/m4_n288088_n262980# bondpad_array_ds_6_0/pad4diode_1[2|5]/pad4_0/m4_n288088_n262980#
+ bondpad_array_ds_6_0/pad4diode_1[0|4]/pad4_0/m4_n288088_n262980# bondpad_array_ds_6_0/pad4diode_1[6|1]/pad4_0/m4_n288088_n262980#
+ bondpad_array_ds_6_0/pad4diode_1[3|0]/pad4_0/m4_n288088_n262980# bondpad_array_ds_6_0/pad4diode_1[0|5]/pad4_0/m4_n288088_n262980#
+ bondpad_array_ds_6_0/pad4diode_1[5|0]/pad4_0/m4_n288088_n262980# bondpad_array_ds_6_0/pad4diode_1[2|6]/pad4_0/m4_n288088_n262980#
+ bondpad_array_ds_6_0/pad4diode_1[6|2]/pad4_0/m4_n288088_n262980# bondpad_array_ds_6_0/pad4diode_0[5|6]/pad4_0/m4_n288088_n262980#
+ bondpad_array_ds_6_0/pad4diode_0[2|5]/pad4_0/m4_n288088_n262980# bondpad_array_ds_6_0/pad4diode_1[3|7]/pad4_0/m4_n288088_n262980#
+ bondpad_array_ds_6_0/pad4diode_0[2|2]/pad4_0/m4_n288088_n262980# bondpad_array_ds_6_0/pad4diode_0[3|4]/pad4_0/m4_n288088_n262980#
+ bondpad_array_ds_6_0/pad4diode_0[5|5]/pad4_0/m4_n288088_n262980# bondpad_array_ds_6_0/pad4diode_0[3|7]/pad4_0/m4_n288088_n262980#
+ bondpad_array_ds_6_0/pad4diode_0[1|2]/pad4_0/m4_n288088_n262980# bondpad_array_ds_6_0/pad4diode_1[3|4]/pad4_0/m4_n288088_n262980#
+ bondpad_array_ds_6_0/pad4diode_0[5|7]/pad4_0/m4_n288088_n262980# bondpad_array_ds_6_0/pad4diode_0[3|3]/pad4_0/m4_n288088_n262980#
+ bondpad_array_ds_6_0/pad4diode_0[5|4]/pad4_0/m4_n288088_n262980# bondpad_array_ds_6_0/pad4diode_1[3|1]/pad4_0/m4_n288088_n262980#
+ bondpad_array_ds_6_0/pad4diode_0[1|1]/pad4_0/m4_n288088_n262980# bondpad_array_ds_6_0/pad4diode_1[6|6]/pad4_0/m4_n288088_n262980#
+ bondpad_array_ds_6_0/pad4diode_0[5|1]/pad4_0/m4_n288088_n262980# bondpad_array_ds_6_0/pad4diode_0[4|0]/pad4_0/m4_n288088_n262980#
+ bondpad_array_ds_6_0/pad4diode_1[5|3]/pad4_0/m4_n288088_n262980# bondpad_array_ds_6_0/pad4diode_1[3|2]/pad4_0/m4_n288088_n262980#
+ bondpad_array_ds_6_0/pad4diode_1[6|3]/pad4_0/m4_n288088_n262980# bondpad_array_ds_6_0/pad4diode_0[0|3]/pad4_0/m4_n288088_n262980#
+ bondpad_array_ds_6_0/pad4diode_1[1|5]/pad4_0/m4_n288088_n262980# bondpad_array_ds_6_0/pad4diode_0[0|0]/pad4_0/m4_n288088_n262980#
+ bondpad_array_ds_6_0/pad4diode_1[5|4]/pad4_0/m4_n288088_n262980# bondpad_array_ds_6_0/pad4diode_1[1|2]/pad4_0/m4_n288088_n262980#
+ bondpad_array_ds_6_0/pad4diode_1[2|7]/pad4_0/m4_n288088_n262980# bondpad_array_ds_6_0/pad4diode_0[3|5]/pad4_0/m4_n288088_n262980#
+ bondpad_array_ds_6_0/pad4diode_1[4|7]/pad4_0/m4_n288088_n262980# bondpad_array_ds_6_0/pad4diode_0[4|2]/pad4_0/m4_n288088_n262980#
+ bondpad_array_ds_6_0/pad4diode_0[3|2]/pad4_0/m4_n288088_n262980# bondpad_array_ds_6_0/pad4diode_0[6|3]/pad4_0/m4_n288088_n262980#
+ bondpad_array_ds_6_0/pad4diode_0[0|6]/pad4_0/m4_n288088_n262980# bondpad_array_ds_6_0/pad4diode_1[4|4]/pad4_0/m4_n288088_n262980#
+ bondpad_array_ds_6_0/pad4diode_0[0|5]/pad4_0/m4_n288088_n262980# bondpad_array_ds_6_0/pad4diode_1[0|1]/pad4_0/m4_n288088_n262980#
+ bondpad_array_ds_6_0/pad4diode_0[4|1]/pad4_0/m4_n288088_n262980# bondpad_array_ds_6_0/pad4diode_1[6|0]/pad4_0/m4_n288088_n262980#
+ bondpad_array_ds_6_0/pad4diode_0[6|7]/pad4_0/m4_n288088_n262980# bondpad_array_ds_6_0/pad4diode_1[4|1]/pad4_0/m4_n288088_n262980#
+ bondpad_array_ds_6_0/pad4diode_0[6|4]/pad4_0/m4_n288088_n262980# bondpad_array_ds_6_0/pad4diode_1[2|3]/pad4_0/m4_n288088_n262980#
+ bondpad_array_ds_6_0/pad4diode_0[1|6]/pad4_0/m4_n288088_n262980# bondpad_array_ds_6_0/pad4diode_1[0|2]/pad4_0/m4_n288088_n262980#
+ bondpad_array_ds_6_0/pad4diode_0[6|1]/pad4_0/m4_n288088_n262980# bondpad_array_ds_6_0/pad4diode_0[1|3]/pad4_0/m4_n288088_n262980#
+ bondpad_array_ds_6_0/pad4diode_1[4|5]/pad4_0/m4_n288088_n262980# bondpad_array_ds_6_0/pad4diode_1[2|4]/pad4_0/m4_n288088_n262980#
Xbp_lines_horiz_main_both_0 bondpad_array_ds_6_0/pad4diode_1[1|3]/pad4_0/m4_n288088_n262980#
+ bondpad_array_ds_6_0/pad4diode_1[4|7]/pad4_0/m4_n288088_n262980# bondpad_array_ds_6_0/pad4diode_1[3|5]/pad4_0/m4_n288088_n262980#
+ bondpad_array_ds_6_0/pad4diode_0[5|7]/pad4_0/m4_n288088_n262980# bondpad_array_ds_6_0/pad4diode_1[1|4]/pad4_0/m4_n288088_n262980#
+ bondpad_array_ds_6_0/pad4diode_1[3|6]/pad4_0/m4_n288088_n262980# bondpad_array_ds_6_0/pad4diode_0[4|6]/pad4_0/m4_n288088_n262980#
+ bondpad_array_ds_6_0/pad4diode_0[2|4]/pad4_0/m4_n288088_n262980# bondpad_array_ds_6_0/pad4diode_0[4|5]/pad4_0/m4_n288088_n262980#
+ bondpad_array_ds_6_0/pad4diode_0[0|2]/pad4_0/m4_n288088_n262980# bondpad_array_ds_6_0/pad4diode_0[2|3]/pad4_0/m4_n288088_n262980#
+ bondpad_array_ds_6_0/pad4diode_1[0|5]/pad4_0/m4_n288088_n262980# bondpad_array_ds_6_0/pad4diode_0[0|1]/pad4_0/m4_n288088_n262980#
+ bondpad_array_ds_6_0/pad4diode_1[4|1]/pad4_0/m4_n288088_n262980# bondpad_array_ds_6_0/pad4diode_1[6|3]/pad4_0/m4_n288088_n262980#
+ bondpad_array_ds_6_0/pad4diode_0[6|0]/pad4_0/m4_n288088_n262980# bondpad_array_ds_6_0/pad4diode_1[4|2]/pad4_0/m4_n288088_n262980#
+ bondpad_array_ds_6_0/pad4diode_1[0|6]/pad4_0/m4_n288088_n262980# bondpad_array_ds_6_0/pad4diode_0[1|0]/pad4_0/m4_n288088_n262980#