* NGSPICE file created from user_analog_project_wrapper.ext - technology: sky130A

.subckt sky130_fd_pr__diode_pd2nw_05v5_5STTM9 a_n290_n290#
D0 a_n290_n290# w_n428_n428# sky130_fd_pr__diode_pd2nw_05v5 pj=1.16e+07u area=8.41e+12p
.ends

.subckt pad4diode pad3_0/m4_n10636_n5828# pad3_0/m5_n10636_n5828# VSUBS
Xsky130_fd_pr__diode_pd2nw_05v5_5STTM9_0 m1_1256_1108# sky130_fd_pr__diode_pd2nw_05v5_5STTM9
.ends

.subckt pattern_unit_small_cs_1x4
.ends

.subckt pattern_row_small_cs_5 drain_vias_0/m3_39512_0# pattern_unit_small_cs_1x4_0[3]/pattern_unit_small_cs_0[0]/m3_1190_n10#
+ pattern_unit_small_cs_1x4_0[2]/pattern_unit_small_cs_0[1]/m3_n10_n10# pattern_unit_small_cs_1x4_0[0]/pattern_unit_small_cs_0[3]/m3_790_n10#
+ pattern_unit_small_cs_1x4_0[2]/pattern_unit_small_cs_0[0]/m3_390_n10# drain_vias_0/m3_51630_0#
+ pattern_unit_small_cs_1x4_0[3]/pattern_unit_small_cs_0[3]/m3_790_n10# pattern_unit_small_cs_1x4_0[1]/pattern_unit_small_cs_0[3]/m3_390_n10#
+ drain_vias_0/m3_n4_0# pattern_unit_small_cs_1x4_0[1]/pattern_unit_small_cs_0[3]/m3_n410_n10#
+ m4_47972_4350# pattern_unit_small_cs_1x4_0[3]/pattern_unit_small_cs_0[3]/m3_1190_n10#
+ pattern_unit_small_cs_1x4_0[0]/pattern_unit_small_cs_0[2]/m3_1990_n10# pattern_unit_small_cs_1x4_0[2]/pattern_unit_small_cs_0[1]/m3_790_n10#
+ pattern_unit_small_cs_1x4_0[2]/pattern_unit_small_cs_0[2]/m3_n410_n10# pattern_unit_small_cs_1x4_0[0]/pattern_unit_small_cs_0[2]/m3_n10_n10#
+ pattern_unit_small_cs_1x4_0[1]/pattern_unit_small_cs_0[1]/m3_1990_n10# pattern_unit_small_cs_1x4_0[0]/pattern_unit_small_cs_0[1]/m3_390_n10#
+ pattern_unit_small_cs_1x4_0[3]/pattern_unit_small_cs_0[1]/m3_n410_n10# pattern_unit_small_cs_1x4_0[3]/pattern_unit_small_cs_0[2]/m3_n10_n10#
+ pattern_unit_small_cs_1x4_0[3]/pattern_unit_small_cs_0[1]/m3_390_n10# pattern_unit_small_cs_1x4_0[2]/pattern_unit_small_cs_0[0]/m3_1990_n10#
+ pattern_unit_small_cs_1x4_0[0]/pattern_unit_small_cs_0[1]/m3_1190_n10# drain_vias_0/m3_9164_0#
+ pattern_unit_small_cs_1x4_0[1]/pattern_unit_small_cs_0[0]/m3_1190_n10# pattern_unit_small_cs_1x4_0[2]/pattern_unit_small_cs_0[0]/m3_n10_n10#
+ pattern_unit_small_cs_1x4_0[0]/pattern_unit_small_cs_0[2]/m3_790_n10# drain_vias_0/m3_21282_0#
+ pattern_unit_small_cs_1x4_0[3]/pattern_unit_small_cs_0[2]/m3_790_n10# drain_vias_0/m3_33400_0#
+ m4_26792_3570# pattern_unit_small_cs_1x4_0[1]/pattern_unit_small_cs_0[3]/m3_n10_n10#
+ m4_38910_4038# pattern_unit_small_cs_1x4_0[1]/pattern_unit_small_cs_0[2]/m3_390_n10#
+ pattern_unit_small_cs_1x4_0[2]/pattern_unit_small_cs_0[3]/m3_1990_n10# drain_vias_0/m3_45518_0#
+ m4_20680_3258# pattern_unit_small_cs_1x4_0[1]/pattern_unit_small_cs_0[3]/m3_1190_n10#
+ pattern_unit_small_cs_1x4_0[3]/pattern_unit_small_cs_0[2]/m3_1990_n10# pattern_unit_small_cs_1x4_0[2]/pattern_unit_small_cs_0[0]/m3_790_n10#
+ m4_17624_3102# pattern_unit_small_cs_1x4_0[0]/pattern_unit_small_cs_0[2]/m3_n410_n10#
+ pattern_unit_small_cs_1x4_0[0]/pattern_unit_small_cs_0[1]/m3_n10_n10# m4_51028_4506#
+ pattern_unit_small_cs_1x4_0[2]/pattern_unit_small_cs_0[2]/m3_1190_n10# pattern_unit_small_cs_1x4_0[0]/pattern_unit_small_cs_0[0]/m3_390_n10#
+ m4_41966_4194# pattern_unit_small_cs_1x4_0[1]/pattern_unit_small_cs_0[1]/m3_n410_n10#
+ pattern_unit_small_cs_1x4_0[3]/pattern_unit_small_cs_0[1]/m3_n10_n10# pattern_unit_small_cs_1x4_0[1]/pattern_unit_small_cs_0[3]/m3_790_n10#
+ pattern_unit_small_cs_1x4_0[3]/pattern_unit_small_cs_0[1]/m3_1190_n10# pattern_unit_small_cs_1x4_0[0]/pattern_unit_small_cs_0[0]/m3_1990_n10#
+ pattern_unit_small_cs_1x4_0[3]/pattern_unit_small_cs_0[0]/m3_390_n10# pattern_unit_small_cs_1x4_0[2]/pattern_unit_small_cs_0[0]/m3_n410_n10#
+ drain_vias_0/m3_54686_0# m4_5506_2634# m4_2450_2478# pattern_unit_small_cs_1x4_0[2]/pattern_unit_small_cs_0[3]/m3_390_n10#
+ pattern_unit_small_cs_1x4_0[0]/pattern_unit_small_cs_0[1]/m3_790_n10# drain_vias_0/m3_3052_0#
+ pattern_unit_small_cs_1x4_0[3]/pattern_unit_small_cs_0[1]/m3_790_n10# m4_8562_2790#
+ pattern_unit_small_cs_1x4_0[1]/pattern_unit_small_cs_0[2]/m3_n10_n10# pattern_unit_small_cs_1x4_0[1]/pattern_unit_small_cs_0[1]/m3_390_n10#
+ pattern_unit_small_cs_1x4_0[0]/pattern_unit_small_cs_0[3]/m3_1990_n10# drain_vias_0/m3_15170_0#
+ pattern_unit_small_cs_1x4_0[2]/pattern_unit_small_cs_0[3]/m3_n410_n10# pattern_unit_small_cs_1x4_0[1]/pattern_unit_small_cs_0[2]/m3_1990_n10#
+ pattern_unit_small_cs_1x4_0[3]/pattern_unit_small_cs_0[2]/m3_n410_n10# m4_32798_3726#
+ pattern_unit_small_cs_1x4_0[0]/pattern_unit_small_cs_0[0]/m3_n10_n10# pattern_unit_small_cs_1x4_0[0]/pattern_unit_small_cs_0[2]/m3_1190_n10#
+ pattern_unit_small_cs_1x4_0[2]/pattern_unit_small_cs_0[1]/m3_1990_n10# pattern_unit_small_cs_1x4_0[3]/pattern_unit_small_cs_0[0]/m3_n10_n10#
+ pattern_unit_small_cs_1x4_0[1]/pattern_unit_small_cs_0[2]/m3_790_n10# pattern_unit_small_cs_1x4_0[1]/pattern_unit_small_cs_0[1]/m3_1190_n10#
+ pattern_unit_small_cs_1x4_0[3]/pattern_unit_small_cs_0[0]/m3_1990_n10# m4_54084_4662#
+ pattern_unit_small_cs_1x4_0[0]/pattern_unit_small_cs_0[0]/m3_n410_n10# drain_vias_0/m3_24338_0#
+ pattern_unit_small_cs_1x4_0[2]/pattern_unit_small_cs_0[0]/m3_1190_n10# pattern_unit_small_row_label_3/m5_70_3052#
+ pattern_unit_small_cs_1x4_0[2]/pattern_unit_small_cs_0[3]/m3_n10_n10# drain_vias_0/m3_36456_0#
+ pattern_unit_small_cs_1x4_0[2]/pattern_unit_small_cs_0[2]/m3_390_n10# pattern_unit_small_cs_1x4_0[0]/pattern_unit_small_cs_0[0]/m3_790_n10#
+ m4_23736_3414# drain_vias_0/m3_48574_0# pattern_unit_small_cs_1x4_0[3]/pattern_unit_small_cs_0[0]/m3_790_n10#
+ pattern_unit_small_cs_1x4_0[1]/pattern_unit_small_cs_0[1]/m3_n10_n10# pattern_unit_small_cs_1x4_0[1]/pattern_unit_small_cs_0[0]/m3_390_n10#
+ pattern_unit_small_cs_1x4_0[3]/pattern_unit_small_cs_0[3]/m3_1990_n10# pattern_unit_small_cs_1x4_0[0]/pattern_unit_small_cs_0[3]/m3_n410_n10#
+ pattern_unit_small_cs_1x4_0[2]/pattern_unit_small_cs_0[3]/m3_790_n10# pattern_unit_small_cs_1x4_0[2]/pattern_unit_small_cs_0[3]/m3_1190_n10#
+ pattern_unit_small_cs_1x4_0[1]/pattern_unit_small_cs_0[2]/m3_n410_n10# pattern_unit_small_cs_1x4_0[0]/pattern_unit_small_cs_0[3]/m3_390_n10#
+ pattern_unit_small_cs_1x4_0[0]/pattern_unit_small_cs_0[1]/m3_1990_n10# pattern_unit_small_cs_1x4_0[3]/pattern_unit_small_cs_0[2]/m3_1190_n10#
+ pattern_unit_small_cs_1x4_0[2]/pattern_unit_small_cs_0[1]/m3_n410_n10# pattern_unit_small_cs_1x4_0[3]/pattern_unit_small_cs_0[3]/m3_390_n10#
+ pattern_unit_small_cs_1x4_0[1]/pattern_unit_small_cs_0[1]/m3_790_n10# pattern_unit_small_cs_1x4_0[1]/pattern_unit_small_cs_0[0]/m3_1990_n10#
+ pattern_unit_small_cs_1x4_0[3]/pattern_unit_small_cs_0[0]/m3_n410_n10# pattern_unit_small_cs_1x4_0[0]/pattern_unit_small_cs_0[0]/m3_1190_n10#
+ pattern_unit_small_cs_1x4_0[2]/pattern_unit_small_cs_0[2]/m3_n10_n10# m4_57140_4818#
+ m4_35854_3882# pattern_unit_small_cs_1x4_0[2]/pattern_unit_small_cs_0[1]/m3_390_n10#
+ drain_vias_0/m3_6108_0# drain_vias_0/m3_18226_0# pattern_unit_small_cs_1x4_0[1]/pattern_unit_small_cs_0[0]/m3_n10_n10#
+ pattern_unit_small_cs_1x4_0[1]/pattern_unit_small_cs_0[3]/m3_1990_n10# drain_vias_0/m3_30344_0#
+ pattern_unit_small_cs_1x4_0[3]/pattern_unit_small_cs_0[3]/m3_n410_n10# pattern_unit_small_cs_1x4_0[0]/pattern_unit_small_cs_0[3]/m3_1190_n10#
+ pattern_unit_small_cs_1x4_0[2]/pattern_unit_small_cs_0[2]/m3_790_n10# pattern_unit_small_cs_1x4_0[2]/pattern_unit_small_cs_0[2]/m3_1990_n10#
+ pattern_unit_small_cs_1x4_0[0]/pattern_unit_small_cs_0[3]/m3_n10_n10# pattern_unit_small_cs_1x4_0[0]/pattern_unit_small_cs_0[2]/m3_390_n10#
+ pattern_unit_small_cs_1x4_0[1]/pattern_unit_small_cs_0[2]/m3_1190_n10# pattern_unit_small_cs_1x4_0[3]/pattern_unit_small_cs_0[1]/m3_1990_n10#
+ pattern_unit_small_cs_1x4_0[3]/pattern_unit_small_cs_0[3]/m3_n10_n10# pattern_unit_small_cs_1x4_0[0]/pattern_unit_small_cs_0[1]/m3_n410_n10#
+ pattern_unit_small_cs_1x4_0[3]/pattern_unit_small_cs_0[2]/m3_390_n10# pattern_unit_small_cs_1x4_0[2]/pattern_unit_small_cs_0[1]/m3_1190_n10#
+ pattern_unit_small_cs_1x4_0[1]/pattern_unit_small_cs_0[0]/m3_790_n10# m4_11618_2946#
+ pattern_unit_small_cs_1x4_0[1]/pattern_unit_small_cs_0[0]/m3_n410_n10#
Xpattern_unit_small_cs_1x4_0[0] pattern_unit_small_cs_1x4
Xpattern_unit_small_cs_1x4_0[1] pattern_unit_small_cs_1x4
Xpattern_unit_small_cs_1x4_0[2] pattern_unit_small_cs_1x4
Xpattern_unit_small_cs_1x4_0[3] pattern_unit_small_cs_1x4
.ends

.subckt pattern_row_small_cs_3 pattern_unit_small_cs_1x4_0[2]/pattern_unit_small_cs_0[3]/m3_1590_n10#
+ pattern_unit_small_cs_1x4_0[3]/pattern_unit_small_cs_0[0]/m3_1190_n10# pattern_unit_small_cs_1x4_0[2]/pattern_unit_small_cs_0[1]/m3_n10_n10#
+ pattern_unit_small_cs_1x4_0[0]/pattern_unit_small_cs_0[3]/m3_790_n10# pattern_unit_small_cs_1x4_0[3]/pattern_unit_small_cs_0[2]/m3_1590_n10#
+ pattern_unit_small_cs_1x4_0[2]/pattern_unit_small_cs_0[0]/m3_390_n10# pattern_unit_small_cs_1x4_0[3]/pattern_unit_small_cs_0[3]/m3_790_n10#
+ pattern_unit_small_cs_1x4_0[2]/pattern_unit_small_cs_0[0]/m4_n410_6452# pattern_unit_small_cs_1x4_0[1]/pattern_unit_small_cs_0[3]/m3_390_n10#
+ pattern_unit_small_cs_1x4_0[0]/pattern_unit_small_cs_0[0]/m3_1590_n10# pattern_unit_small_cs_1x4_0[1]/pattern_unit_small_cs_0[3]/m3_n410_n10#
+ pattern_unit_small_cs_1x4_0[3]/pattern_unit_small_cs_0[0]/m4_n410_6452# m4_47972_4350#
+ pattern_unit_small_cs_1x4_0[3]/pattern_unit_small_cs_0[3]/m3_1190_n10# pattern_unit_small_cs_1x4_0[0]/pattern_unit_small_cs_0[2]/m3_1990_n10#
+ pattern_unit_small_cs_1x4_0[2]/pattern_unit_small_cs_0[1]/m3_790_n10# pattern_unit_small_cs_1x4_0[2]/pattern_unit_small_cs_0[2]/m3_n410_n10#
+ pattern_unit_small_cs_1x4_0[0]/pattern_unit_small_cs_0[2]/m3_n10_n10# pattern_unit_small_cs_1x4_0[1]/pattern_unit_small_cs_0[1]/m3_1990_n10#
+ pattern_unit_small_cs_1x4_0[0]/pattern_unit_small_cs_0[1]/m3_390_n10# pattern_unit_small_cs_1x4_0[3]/pattern_unit_small_cs_0[1]/m3_n410_n10#
+ pattern_unit_small_cs_1x4_0[3]/pattern_unit_small_cs_0[2]/m3_n10_n10# pattern_unit_small_cs_1x4_0[3]/pattern_unit_small_cs_0[1]/m3_390_n10#
+ pattern_unit_small_cs_1x4_0[2]/pattern_unit_small_cs_0[0]/m3_1990_n10# pattern_unit_small_cs_1x4_0[0]/pattern_unit_small_cs_0[1]/m3_1190_n10#
+ pattern_unit_small_cs_1x4_0[0]/pattern_unit_small_cs_0[3]/m3_1590_n10# pattern_unit_small_cs_1x4_0[1]/pattern_unit_small_cs_0[0]/m3_1190_n10#
+ pattern_unit_small_cs_1x4_0[0]/pattern_unit_small_cs_0[1]/m4_n410_6452# pattern_unit_small_cs_1x4_0[2]/pattern_unit_small_cs_0[0]/m3_n10_n10#
+ pattern_unit_small_cs_1x4_0[0]/pattern_unit_small_cs_0[2]/m3_790_n10# pattern_unit_small_cs_1x4_0[1]/pattern_unit_small_cs_0[2]/m3_1590_n10#
+ pattern_unit_small_cs_1x4_0[3]/pattern_unit_small_cs_0[2]/m3_790_n10# pattern_unit_small_cs_1x4_0[2]/pattern_unit_small_cs_0[1]/m3_1590_n10#
+ pattern_unit_small_cs_1x4_0[1]/pattern_unit_small_cs_0[1]/m4_n410_6452# m4_26792_3570#
+ pattern_unit_small_cs_1x4_0[1]/pattern_unit_small_cs_0[3]/m3_n10_n10# m4_38910_4038#
+ pattern_unit_small_cs_1x4_0[1]/pattern_unit_small_cs_0[2]/m3_390_n10# pattern_unit_small_cs_1x4_0[2]/pattern_unit_small_cs_0[3]/m3_1990_n10#
+ pattern_unit_small_cs_1x4_0[3]/pattern_unit_small_cs_0[0]/m3_1590_n10# m4_20680_3258#
+ pattern_unit_small_cs_1x4_0[1]/pattern_unit_small_cs_0[3]/m3_1190_n10# pattern_unit_small_cs_1x4_0[3]/pattern_unit_small_cs_0[2]/m3_1990_n10#
+ pattern_unit_small_cs_1x4_0[2]/pattern_unit_small_cs_0[1]/m4_n410_6452# pattern_unit_small_cs_1x4_0[2]/pattern_unit_small_cs_0[0]/m3_790_n10#
+ m4_17624_3102# pattern_unit_small_cs_1x4_0[0]/pattern_unit_small_cs_0[2]/m3_n410_n10#
+ pattern_unit_small_cs_1x4_0[0]/pattern_unit_small_cs_0[1]/m3_n10_n10# m4_51028_4506#
+ pattern_unit_small_cs_1x4_0[2]/pattern_unit_small_cs_0[2]/m3_1190_n10# pattern_unit_small_cs_1x4_0[0]/pattern_unit_small_cs_0[0]/m3_390_n10#
+ m4_41966_4194# pattern_unit_small_cs_1x4_0[1]/pattern_unit_small_cs_0[1]/m3_n410_n10#
+ pattern_unit_small_cs_1x4_0[3]/pattern_unit_small_cs_0[1]/m3_n10_n10# pattern_unit_small_cs_1x4_0[1]/pattern_unit_small_cs_0[3]/m3_790_n10#
+ pattern_unit_small_cs_1x4_0[3]/pattern_unit_small_cs_0[1]/m4_n410_6452# pattern_unit_small_cs_1x4_0[3]/pattern_unit_small_cs_0[1]/m3_1190_n10#
+ pattern_unit_small_cs_1x4_0[0]/pattern_unit_small_cs_0[0]/m3_1990_n10# pattern_unit_small_cs_1x4_0[3]/pattern_unit_small_cs_0[0]/m3_390_n10#
+ pattern_unit_small_cs_1x4_0[2]/pattern_unit_small_cs_0[0]/m3_n410_n10# pattern_unit_small_cs_1x4_0[3]/pattern_unit_small_cs_0[3]/m3_1590_n10#
+ m4_5506_2634# m4_2450_2478# pattern_unit_small_cs_1x4_0[2]/pattern_unit_small_cs_0[3]/m3_390_n10#
+ pattern_unit_small_cs_1x4_0[0]/pattern_unit_small_cs_0[1]/m3_790_n10# pattern_unit_small_cs_1x4_0[0]/pattern_unit_small_cs_0[1]/m3_1590_n10#
+ pattern_unit_small_cs_1x4_0[3]/pattern_unit_small_cs_0[1]/m3_790_n10# m4_8562_2790#
+ pattern_unit_small_cs_1x4_0[1]/pattern_unit_small_cs_0[2]/m3_n10_n10# pattern_unit_small_cs_1x4_0[0]/pattern_unit_small_cs_0[2]/m4_n410_6452#
+ pattern_unit_small_cs_1x4_0[1]/pattern_unit_small_cs_0[1]/m3_390_n10# pattern_unit_small_cs_1x4_0[0]/pattern_unit_small_cs_0[3]/m3_1990_n10#
+ pattern_unit_small_cs_1x4_0[1]/pattern_unit_small_cs_0[0]/m3_1590_n10# pattern_unit_small_cs_1x4_0[2]/pattern_unit_small_cs_0[3]/m3_n410_n10#
+ pattern_unit_small_cs_1x4_0[1]/pattern_unit_small_cs_0[2]/m3_1990_n10# pattern_unit_small_cs_1x4_0[1]/pattern_unit_small_cs_0[2]/m4_n410_6452#
+ pattern_unit_small_cs_1x4_0[3]/pattern_unit_small_cs_0[2]/m3_n410_n10# m4_32798_3726#
+ pattern_unit_small_cs_1x4_0[0]/pattern_unit_small_cs_0[0]/m3_n10_n10# pattern_unit_small_cs_1x4_0[0]/pattern_unit_small_cs_0[2]/m3_1190_n10#
+ pattern_unit_small_cs_1x4_0[2]/pattern_unit_small_cs_0[1]/m3_1990_n10# pattern_unit_small_cs_1x4_0[3]/pattern_unit_small_cs_0[0]/m3_n10_n10#
+ pattern_unit_small_cs_1x4_0[1]/pattern_unit_small_cs_0[2]/m3_790_n10# pattern_unit_small_cs_1x4_0[1]/pattern_unit_small_cs_0[1]/m3_1190_n10#
+ pattern_unit_small_cs_1x4_0[2]/pattern_unit_small_cs_0[2]/m4_n410_6452# pattern_unit_small_cs_1x4_0[3]/pattern_unit_small_cs_0[0]/m3_1990_n10#
+ pattern_unit_small_row_label_3/m5_70_3052# m4_54084_4662# pattern_unit_small_cs_1x4_0[0]/pattern_unit_small_cs_0[0]/m3_n410_n10#
+ pattern_unit_small_cs_1x4_0[1]/pattern_unit_small_cs_0[3]/m3_1590_n10# pattern_unit_small_cs_1x4_0[2]/pattern_unit_small_cs_0[0]/m3_1190_n10#
+ pattern_unit_small_cs_1x4_0[2]/pattern_unit_small_cs_0[3]/m3_n10_n10# pattern_unit_small_cs_1x4_0[3]/pattern_unit_small_cs_0[2]/m4_n410_6452#
+ pattern_unit_small_cs_1x4_0[2]/pattern_unit_small_cs_0[2]/m3_1590_n10# pattern_unit_small_cs_1x4_0[2]/pattern_unit_small_cs_0[2]/m3_390_n10#
+ pattern_unit_small_cs_1x4_0[0]/pattern_unit_small_cs_0[0]/m3_790_n10# m4_23736_3414#
+ pattern_unit_small_cs_1x4_0[3]/pattern_unit_small_cs_0[1]/m3_1590_n10# pattern_unit_small_cs_1x4_0[3]/pattern_unit_small_cs_0[0]/m3_790_n10#
+ pattern_unit_small_cs_1x4_0[1]/pattern_unit_small_cs_0[1]/m3_n10_n10# pattern_unit_small_cs_1x4_0[1]/pattern_unit_small_cs_0[0]/m3_390_n10#
+ pattern_unit_small_cs_1x4_0[3]/pattern_unit_small_cs_0[3]/m3_1990_n10# pattern_unit_small_cs_1x4_0[0]/pattern_unit_small_cs_0[3]/m3_n410_n10#
+ pattern_unit_small_cs_1x4_0[2]/pattern_unit_small_cs_0[3]/m3_790_n10# pattern_unit_small_cs_1x4_0[2]/pattern_unit_small_cs_0[3]/m3_1190_n10#
+ pattern_unit_small_cs_1x4_0[1]/pattern_unit_small_cs_0[2]/m3_n410_n10# pattern_unit_small_cs_1x4_0[0]/pattern_unit_small_cs_0[3]/m3_390_n10#
+ pattern_unit_small_cs_1x4_0[0]/pattern_unit_small_cs_0[3]/m4_n410_6452# pattern_unit_small_cs_1x4_0[0]/pattern_unit_small_cs_0[1]/m3_1990_n10#
+ pattern_unit_small_cs_1x4_0[3]/pattern_unit_small_cs_0[2]/m3_1190_n10# pattern_unit_small_cs_1x4_0[2]/pattern_unit_small_cs_0[1]/m3_n410_n10#
+ pattern_unit_small_cs_1x4_0[3]/pattern_unit_small_cs_0[3]/m3_390_n10# pattern_unit_small_cs_1x4_0[1]/pattern_unit_small_cs_0[1]/m3_790_n10#
+ pattern_unit_small_cs_1x4_0[1]/pattern_unit_small_cs_0[0]/m3_1990_n10# pattern_unit_small_cs_1x4_0[3]/pattern_unit_small_cs_0[0]/m3_n410_n10#
+ pattern_unit_small_cs_1x4_0[1]/pattern_unit_small_cs_0[3]/m4_n410_6452# pattern_unit_small_cs_1x4_0[0]/pattern_unit_small_cs_0[0]/m3_1190_n10#
+ pattern_unit_small_cs_1x4_0[2]/pattern_unit_small_cs_0[2]/m3_n10_n10# m4_57140_4818#
+ m4_35854_3882# pattern_unit_small_cs_1x4_0[2]/pattern_unit_small_cs_0[1]/m3_390_n10#
+ pattern_unit_small_cs_1x4_0[0]/pattern_unit_small_cs_0[2]/m3_1590_n10# pattern_unit_small_cs_1x4_0[2]/pattern_unit_small_cs_0[3]/m4_n410_6452#
+ pattern_unit_small_cs_1x4_0[1]/pattern_unit_small_cs_0[1]/m3_1590_n10# pattern_unit_small_cs_1x4_0[1]/pattern_unit_small_cs_0[0]/m3_n10_n10#
+ pattern_unit_small_cs_1x4_0[1]/pattern_unit_small_cs_0[3]/m3_1990_n10# pattern_unit_small_cs_1x4_0[2]/pattern_unit_small_cs_0[0]/m3_1590_n10#
+ pattern_unit_small_cs_1x4_0[3]/pattern_unit_small_cs_0[3]/m4_n410_6452# pattern_unit_small_cs_1x4_0[3]/pattern_unit_small_cs_0[3]/m3_n410_n10#
+ pattern_unit_small_cs_1x4_0[0]/pattern_unit_small_cs_0[3]/m3_1190_n10# pattern_unit_small_cs_1x4_0[2]/pattern_unit_small_cs_0[2]/m3_790_n10#
+ pattern_unit_small_cs_1x4_0[2]/pattern_unit_small_cs_0[2]/m3_1990_n10# pattern_unit_small_cs_1x4_0[0]/pattern_unit_small_cs_0[3]/m3_n10_n10#
+ pattern_unit_small_cs_1x4_0[0]/pattern_unit_small_cs_0[2]/m3_390_n10# pattern_unit_small_cs_1x4_0[1]/pattern_unit_small_cs_0[2]/m3_1190_n10#
+ pattern_unit_small_cs_1x4_0[0]/pattern_unit_small_cs_0[0]/m4_n410_6452# pattern_unit_small_cs_1x4_0[3]/pattern_unit_small_cs_0[1]/m3_1990_n10#
+ pattern_unit_small_cs_1x4_0[3]/pattern_unit_small_cs_0[3]/m3_n10_n10# pattern_unit_small_cs_1x4_0[0]/pattern_unit_small_cs_0[1]/m3_n410_n10#
+ pattern_unit_small_cs_1x4_0[3]/pattern_unit_small_cs_0[2]/m3_390_n10# pattern_unit_small_cs_1x4_0[2]/pattern_unit_small_cs_0[1]/m3_1190_n10#
+ pattern_unit_small_cs_1x4_0[1]/pattern_unit_small_cs_0[0]/m3_790_n10# m4_11618_2946#
+ pattern_unit_small_cs_1x4_0[1]/pattern_unit_small_cs_0[0]/m3_n410_n10# pattern_unit_small_cs_1x4_0[1]/pattern_unit_small_cs_0[0]/m4_n410_6452#
Xpattern_unit_small_cs_1x4_0[0] pattern_unit_small_cs_1x4
Xpattern_unit_small_cs_1x4_0[1] pattern_unit_small_cs_1x4
Xpattern_unit_small_cs_1x4_0[2] pattern_unit_small_cs_1x4
Xpattern_unit_small_cs_1x4_0[3] pattern_unit_small_cs_1x4
.ends

.subckt pattern_row_small_cs_1 pattern_unit_small_cs_1x4_0[2]/pattern_unit_small_cs_0[3]/m3_1590_n10#
+ pattern_unit_small_cs_1x4_0[3]/pattern_unit_small_cs_0[0]/m3_1190_n10# pattern_unit_small_cs_1x4_0[2]/pattern_unit_small_cs_0[1]/m3_n10_n10#
+ pattern_unit_small_cs_1x4_0[0]/pattern_unit_small_cs_0[3]/m3_790_n10# pattern_unit_small_cs_1x4_0[3]/pattern_unit_small_cs_0[2]/m3_1590_n10#
+ pattern_unit_small_cs_1x4_0[2]/pattern_unit_small_cs_0[0]/m3_390_n10# pattern_unit_small_cs_1x4_0[2]/pattern_unit_small_cs_0[0]/m4_n410_6452#
+ pattern_unit_small_cs_1x4_0[3]/pattern_unit_small_cs_0[3]/m3_790_n10# pattern_unit_small_cs_1x4_0[1]/pattern_unit_small_cs_0[3]/m3_390_n10#
+ pattern_unit_small_cs_1x4_0[0]/pattern_unit_small_cs_0[0]/m3_1590_n10# pattern_unit_small_cs_1x4_0[1]/pattern_unit_small_cs_0[3]/m3_n410_n10#
+ pattern_unit_small_cs_1x4_0[3]/pattern_unit_small_cs_0[0]/m4_n410_6452# m4_47972_4350#
+ pattern_unit_small_cs_1x4_0[3]/pattern_unit_small_cs_0[3]/m3_1190_n10# pattern_unit_small_cs_1x4_0[0]/pattern_unit_small_cs_0[2]/m3_1990_n10#
+ pattern_unit_small_cs_1x4_0[2]/pattern_unit_small_cs_0[1]/m3_790_n10# pattern_unit_small_cs_1x4_0[2]/pattern_unit_small_cs_0[2]/m3_n410_n10#
+ pattern_unit_small_cs_1x4_0[0]/pattern_unit_small_cs_0[2]/m3_n10_n10# pattern_unit_small_cs_1x4_0[1]/pattern_unit_small_cs_0[1]/m3_1990_n10#
+ pattern_unit_small_cs_1x4_0[0]/pattern_unit_small_cs_0[1]/m3_390_n10# pattern_unit_small_cs_1x4_0[3]/pattern_unit_small_cs_0[1]/m3_n410_n10#
+ pattern_unit_small_cs_1x4_0[3]/pattern_unit_small_cs_0[2]/m3_n10_n10# pattern_unit_small_cs_1x4_0[3]/pattern_unit_small_cs_0[1]/m3_390_n10#
+ pattern_unit_small_cs_1x4_0[2]/pattern_unit_small_cs_0[0]/m3_1990_n10# pattern_unit_small_cs_1x4_0[0]/pattern_unit_small_cs_0[1]/m3_1190_n10#
+ pattern_unit_small_cs_1x4_0[0]/pattern_unit_small_cs_0[3]/m3_1590_n10# pattern_unit_small_cs_1x4_0[1]/pattern_unit_small_cs_0[0]/m3_1190_n10#
+ pattern_unit_small_cs_1x4_0[0]/pattern_unit_small_cs_0[1]/m4_n410_6452# pattern_unit_small_cs_1x4_0[2]/pattern_unit_small_cs_0[0]/m3_n10_n10#
+ pattern_unit_small_cs_1x4_0[0]/pattern_unit_small_cs_0[2]/m3_790_n10# pattern_unit_small_cs_1x4_0[1]/pattern_unit_small_cs_0[2]/m3_1590_n10#
+ pattern_unit_small_cs_1x4_0[3]/pattern_unit_small_cs_0[2]/m3_790_n10# pattern_unit_small_cs_1x4_0[2]/pattern_unit_small_cs_0[1]/m3_1590_n10#
+ pattern_unit_small_cs_1x4_0[1]/pattern_unit_small_cs_0[1]/m4_n410_6452# m4_26792_3570#
+ pattern_unit_small_cs_1x4_0[1]/pattern_unit_small_cs_0[3]/m3_n10_n10# m4_38910_4038#
+ pattern_unit_small_cs_1x4_0[1]/pattern_unit_small_cs_0[2]/m3_390_n10# pattern_unit_small_cs_1x4_0[2]/pattern_unit_small_cs_0[3]/m3_1990_n10#
+ pattern_unit_small_cs_1x4_0[3]/pattern_unit_small_cs_0[0]/m3_1590_n10# m4_20680_3258#
+ pattern_unit_small_cs_1x4_0[1]/pattern_unit_small_cs_0[3]/m3_1190_n10# pattern_unit_small_cs_1x4_0[3]/pattern_unit_small_cs_0[2]/m3_1990_n10#
+ pattern_unit_small_cs_1x4_0[2]/pattern_unit_small_cs_0[1]/m4_n410_6452# pattern_unit_small_cs_1x4_0[2]/pattern_unit_small_cs_0[0]/m3_790_n10#
+ m4_17624_3102# pattern_unit_small_cs_1x4_0[0]/pattern_unit_small_cs_0[2]/m3_n410_n10#
+ pattern_unit_small_cs_1x4_0[0]/pattern_unit_small_cs_0[1]/m3_n10_n10# m4_51028_4506#
+ pattern_unit_small_cs_1x4_0[2]/pattern_unit_small_cs_0[2]/m3_1190_n10# pattern_unit_small_cs_1x4_0[0]/pattern_unit_small_cs_0[0]/m3_390_n10#
+ m4_41966_4194# pattern_unit_small_cs_1x4_0[1]/pattern_unit_small_cs_0[1]/m3_n410_n10#
+ pattern_unit_small_cs_1x4_0[3]/pattern_unit_small_cs_0[1]/m3_n10_n10# pattern_unit_small_cs_1x4_0[1]/pattern_unit_small_cs_0[3]/m3_790_n10#
+ pattern_unit_small_cs_1x4_0[3]/pattern_unit_small_cs_0[1]/m4_n410_6452# pattern_unit_small_cs_1x4_0[3]/pattern_unit_small_cs_0[1]/m3_1190_n10#
+ pattern_unit_small_cs_1x4_0[0]/pattern_unit_small_cs_0[0]/m3_1990_n10# pattern_unit_small_cs_1x4_0[3]/pattern_unit_small_cs_0[0]/m3_390_n10#
+ pattern_unit_small_cs_1x4_0[2]/pattern_unit_small_cs_0[0]/m3_n410_n10# pattern_unit_small_cs_1x4_0[3]/pattern_unit_small_cs_0[3]/m3_1590_n10#
+ m4_5506_2634# m4_2450_2478# pattern_unit_small_cs_1x4_0[2]/pattern_unit_small_cs_0[3]/m3_390_n10#
+ pattern_unit_small_cs_1x4_0[0]/pattern_unit_small_cs_0[1]/m3_790_n10# pattern_unit_small_cs_1x4_0[0]/pattern_unit_small_cs_0[1]/m3_1590_n10#
+ pattern_unit_small_cs_1x4_0[3]/pattern_unit_small_cs_0[1]/m3_790_n10# m4_8562_2790#
+ pattern_unit_small_cs_1x4_0[1]/pattern_unit_small_cs_0[2]/m3_n10_n10# pattern_unit_small_cs_1x4_0[0]/pattern_unit_small_cs_0[2]/m4_n410_6452#
+ pattern_unit_small_cs_1x4_0[1]/pattern_unit_small_cs_0[1]/m3_390_n10# pattern_unit_small_cs_1x4_0[0]/pattern_unit_small_cs_0[3]/m3_1990_n10#
+ pattern_unit_small_cs_1x4_0[1]/pattern_unit_small_cs_0[0]/m3_1590_n10# pattern_unit_small_cs_1x4_0[2]/pattern_unit_small_cs_0[3]/m3_n410_n10#
+ pattern_unit_small_cs_1x4_0[1]/pattern_unit_small_cs_0[2]/m3_1990_n10# pattern_unit_small_cs_1x4_0[1]/pattern_unit_small_cs_0[2]/m4_n410_6452#
+ pattern_unit_small_cs_1x4_0[3]/pattern_unit_small_cs_0[2]/m3_n410_n10# m4_32798_3726#
+ pattern_unit_small_cs_1x4_0[0]/pattern_unit_small_cs_0[0]/m3_n10_n10# pattern_unit_small_cs_1x4_0[0]/pattern_unit_small_cs_0[2]/m3_1190_n10#
+ pattern_unit_small_cs_1x4_0[2]/pattern_unit_small_cs_0[1]/m3_1990_n10# pattern_unit_small_cs_1x4_0[3]/pattern_unit_small_cs_0[0]/m3_n10_n10#
+ pattern_unit_small_cs_1x4_0[1]/pattern_unit_small_cs_0[2]/m3_790_n10# pattern_unit_small_cs_1x4_0[1]/pattern_unit_small_cs_0[1]/m3_1190_n10#
+ pattern_unit_small_cs_1x4_0[2]/pattern_unit_small_cs_0[2]/m4_n410_6452# pattern_unit_small_cs_1x4_0[3]/pattern_unit_small_cs_0[0]/m3_1990_n10#
+ m4_54084_4662# pattern_unit_small_cs_1x4_0[0]/pattern_unit_small_cs_0[0]/m3_n410_n10#
+ pattern_unit_small_cs_1x4_0[1]/pattern_unit_small_cs_0[3]/m3_1590_n10# pattern_unit_small_cs_1x4_0[2]/pattern_unit_small_cs_0[0]/m3_1190_n10#
+ pattern_unit_small_cs_1x4_0[2]/pattern_unit_small_cs_0[3]/m3_n10_n10# pattern_unit_small_cs_1x4_0[2]/pattern_unit_small_cs_0[2]/m3_1590_n10#
+ pattern_unit_small_cs_1x4_0[2]/pattern_unit_small_cs_0[2]/m3_390_n10# pattern_unit_small_cs_1x4_0[3]/pattern_unit_small_cs_0[2]/m4_n410_6452#
+ pattern_unit_small_cs_1x4_0[0]/pattern_unit_small_cs_0[0]/m3_790_n10# m4_23736_3414#
+ pattern_unit_small_cs_1x4_0[3]/pattern_unit_small_cs_0[1]/m3_1590_n10# pattern_unit_small_cs_1x4_0[3]/pattern_unit_small_cs_0[0]/m3_790_n10#
+ pattern_unit_small_cs_1x4_0[1]/pattern_unit_small_cs_0[1]/m3_n10_n10# pattern_unit_small_cs_1x4_0[1]/pattern_unit_small_cs_0[0]/m3_390_n10#
+ pattern_unit_small_cs_1x4_0[3]/pattern_unit_small_cs_0[3]/m3_1990_n10# pattern_unit_small_cs_1x4_0[0]/pattern_unit_small_cs_0[3]/m3_n410_n10#
+ pattern_unit_small_cs_1x4_0[2]/pattern_unit_small_cs_0[3]/m3_790_n10# pattern_unit_small_cs_1x4_0[2]/pattern_unit_small_cs_0[3]/m3_1190_n10#
+ pattern_unit_small_cs_1x4_0[1]/pattern_unit_small_cs_0[2]/m3_n410_n10# pattern_unit_small_cs_1x4_0[0]/pattern_unit_small_cs_0[3]/m3_390_n10#
+ pattern_unit_small_cs_1x4_0[0]/pattern_unit_small_cs_0[3]/m4_n410_6452# pattern_unit_small_cs_1x4_0[0]/pattern_unit_small_cs_0[1]/m3_1990_n10#
+ pattern_unit_small_cs_1x4_0[3]/pattern_unit_small_cs_0[2]/m3_1190_n10# pattern_unit_small_cs_1x4_0[2]/pattern_unit_small_cs_0[1]/m3_n410_n10#
+ pattern_unit_small_cs_1x4_0[3]/pattern_unit_small_cs_0[3]/m3_390_n10# pattern_unit_small_cs_1x4_0[1]/pattern_unit_small_cs_0[1]/m3_790_n10#
+ pattern_unit_small_cs_1x4_0[1]/pattern_unit_small_cs_0[0]/m3_1990_n10# pattern_unit_small_cs_1x4_0[3]/pattern_unit_small_cs_0[0]/m3_n410_n10#
+ pattern_unit_small_cs_1x4_0[1]/pattern_unit_small_cs_0[3]/m4_n410_6452# pattern_unit_small_cs_1x4_0[0]/pattern_unit_small_cs_0[0]/m3_1190_n10#
+ pattern_unit_small_cs_1x4_0[2]/pattern_unit_small_cs_0[2]/m3_n10_n10# pattern_unit_small_row_label_3/m5_70_3052#
+ m4_57140_4818# m4_35854_3882# pattern_unit_small_cs_1x4_0[2]/pattern_unit_small_cs_0[1]/m3_390_n10#
+ pattern_unit_small_cs_1x4_0[0]/pattern_unit_small_cs_0[2]/m3_1590_n10# pattern_unit_small_cs_1x4_0[2]/pattern_unit_small_cs_0[3]/m4_n410_6452#
+ pattern_unit_small_cs_1x4_0[1]/pattern_unit_small_cs_0[1]/m3_1590_n10# pattern_unit_small_cs_1x4_0[1]/pattern_unit_small_cs_0[0]/m3_n10_n10#
+ pattern_unit_small_cs_1x4_0[1]/pattern_unit_small_cs_0[3]/m3_1990_n10# pattern_unit_small_cs_1x4_0[3]/pattern_unit_small_cs_0[3]/m4_n410_6452#
+ pattern_unit_small_cs_1x4_0[2]/pattern_unit_small_cs_0[0]/m3_1590_n10# pattern_unit_small_cs_1x4_0[3]/pattern_unit_small_cs_0[3]/m3_n410_n10#
+ pattern_unit_small_cs_1x4_0[0]/pattern_unit_small_cs_0[3]/m3_1190_n10# pattern_unit_small_cs_1x4_0[2]/pattern_unit_small_cs_0[2]/m3_790_n10#
+ pattern_unit_small_cs_1x4_0[2]/pattern_unit_small_cs_0[2]/m3_1990_n10# pattern_unit_small_cs_1x4_0[0]/pattern_unit_small_cs_0[3]/m3_n10_n10#
+ pattern_unit_small_cs_1x4_0[0]/pattern_unit_small_cs_0[2]/m3_390_n10# pattern_unit_small_cs_1x4_0[1]/pattern_unit_small_cs_0[2]/m3_1190_n10#
+ pattern_unit_small_cs_1x4_0[0]/pattern_unit_small_cs_0[0]/m4_n410_6452# pattern_unit_small_cs_1x4_0[3]/pattern_unit_small_cs_0[1]/m3_1990_n10#
+ pattern_unit_small_cs_1x4_0[3]/pattern_unit_small_cs_0[3]/m3_n10_n10# pattern_unit_small_cs_1x4_0[0]/pattern_unit_small_cs_0[1]/m3_n410_n10#
+ pattern_unit_small_cs_1x4_0[3]/pattern_unit_small_cs_0[2]/m3_390_n10# pattern_unit_small_cs_1x4_0[2]/pattern_unit_small_cs_0[1]/m3_1190_n10#
+ pattern_unit_small_cs_1x4_0[1]/pattern_unit_small_cs_0[0]/m3_790_n10# m4_11618_2946#
+ pattern_unit_small_cs_1x4_0[1]/pattern_unit_small_cs_0[0]/m3_n410_n10# pattern_unit_small_cs_1x4_0[1]/pattern_unit_small_cs_0[0]/m4_n410_6452#
Xpattern_unit_small_cs_1x4_0[0] pattern_unit_small_cs_1x4
Xpattern_unit_small_cs_1x4_0[1] pattern_unit_small_cs_1x4
Xpattern_unit_small_cs_1x4_0[2] pattern_unit_small_cs_1x4
Xpattern_unit_small_cs_1x4_0[3] pattern_unit_small_cs_1x4
.ends

.subckt pattern_row_small_cs pattern_unit_small_cs_1x4_0[2]/pattern_unit_small_cs_0[3]/m3_1590_n10#
+ pattern_unit_small_cs_1x4_0[3]/pattern_unit_small_cs_0[0]/m3_1190_n10# pattern_unit_small_cs_1x4_0[2]/pattern_unit_small_cs_0[1]/m3_n10_n10#
+ pattern_unit_small_cs_1x4_0[0]/pattern_unit_small_cs_0[3]/m3_790_n10# pattern_unit_small_cs_1x4_0[2]/pattern_unit_small_cs_0[0]/m3_390_n10#
+ pattern_unit_small_cs_1x4_0[3]/pattern_unit_small_cs_0[2]/m3_1590_n10# pattern_unit_small_cs_1x4_0[3]/pattern_unit_small_cs_0[3]/m3_790_n10#
+ pattern_unit_small_cs_1x4_0[1]/pattern_unit_small_cs_0[3]/m3_390_n10# pattern_unit_small_cs_1x4_0[0]/pattern_unit_small_cs_0[0]/m3_1590_n10#
+ drain_vias_0/m3_24338_0# m4_47972_4350# pattern_unit_small_cs_1x4_0[3]/pattern_unit_small_cs_0[3]/m3_1190_n10#
+ pattern_unit_small_cs_1x4_0[0]/pattern_unit_small_cs_0[2]/m3_1990_n10# pattern_unit_small_cs_1x4_0[2]/pattern_unit_small_cs_0[1]/m3_790_n10#
+ drain_vias_0/m3_36456_0# pattern_unit_small_cs_1x4_0[0]/pattern_unit_small_cs_0[2]/m3_n10_n10#
+ pattern_unit_small_cs_1x4_0[1]/pattern_unit_small_cs_0[1]/m3_1990_n10# pattern_unit_small_cs_1x4_0[0]/pattern_unit_small_cs_0[1]/m3_390_n10#
+ drain_vias_0/m3_48574_0# pattern_unit_small_cs_1x4_0[3]/pattern_unit_small_cs_0[2]/m3_n10_n10#
+ pattern_unit_small_cs_1x4_0[3]/pattern_unit_small_cs_0[1]/m3_390_n10# pattern_unit_small_cs_1x4_0[2]/pattern_unit_small_cs_0[0]/m3_1990_n10#
+ pattern_unit_small_cs_1x4_0[0]/pattern_unit_small_cs_0[1]/m3_1190_n10# pattern_unit_small_cs_1x4_0[0]/pattern_unit_small_cs_0[3]/m3_1590_n10#
+ pattern_unit_small_cs_1x4_0[1]/pattern_unit_small_cs_0[0]/m3_1190_n10# pattern_unit_small_cs_1x4_0[2]/pattern_unit_small_cs_0[0]/m3_n10_n10#
+ pattern_unit_small_cs_1x4_0[0]/pattern_unit_small_cs_0[2]/m3_790_n10# pattern_unit_small_cs_1x4_0[1]/pattern_unit_small_cs_0[2]/m3_1590_n10#
+ pattern_unit_small_cs_1x4_0[3]/pattern_unit_small_cs_0[2]/m3_790_n10# pattern_unit_small_cs_1x4_0[2]/pattern_unit_small_cs_0[1]/m3_1590_n10#
+ m4_26792_3570# pattern_unit_small_cs_1x4_0[1]/pattern_unit_small_cs_0[3]/m3_n10_n10#
+ m4_38910_4038# pattern_unit_small_cs_1x4_0[1]/pattern_unit_small_cs_0[2]/m3_390_n10#